molecules/C180.sdf
 OpenBabel04091613483D

180270  0  0  0  0  0  0  0  0999 V2000
    5.5829    1.7716   -2.3956 C   0  0  0  0  0  0  0  0  0  0  0  0
    6.1097    0.8442   -1.4165 C   0  0  0  0  0  0  0  0  0  0  0  0
    5.9967   -0.4928   -1.9606 C   0  0  0  0  0  0  0  0  0  0  0  0
    5.4002   -0.3916   -3.2759 C   0  0  0  0  0  0  0  0  0  0  0  0
    5.1444    1.0079   -3.5448 C   0  0  0  0  0  0  0  0  0  0  0  0
    5.0097    3.3100   -0.6132 C   0  0  0  0  0  0  0  0  0  0  0  0
    5.5282    2.3972    0.3505 C   0  0  0  0  0  0  0  0  0  0  0  0
    6.0088    1.0868   -0.0576 C   0  0  0  0  0  0  0  0  0  0  0  0
    4.9532    2.9454   -2.0197 C   0  0  0  0  0  0  0  0  0  0  0  0
    5.8676   -1.3849    0.2888 C   0  0  0  0  0  0  0  0  0  0  0  0
    5.7824   -1.5924   -1.1479 C   0  0  0  0  0  0  0  0  0  0  0  0
    5.9788   -0.0689    0.8243 C   0  0  0  0  0  0  0  0  0  0  0  0
    3.5270    2.7365   -4.0621 C   0  0  0  0  0  0  0  0  0  0  0  0
    3.9585    3.4882   -2.9310 C   0  0  0  0  0  0  0  0  0  0  0  0
    4.0745    1.4148   -4.3227 C   0  0  0  0  0  0  0  0  0  0  0  0
    4.5077   -2.6311   -3.0308 C   0  0  0  0  0  0  0  0  0  0  0  0
    5.0949   -2.7308   -1.7363 C   0  0  0  0  0  0  0  0  0  0  0  0
    4.5870   -1.3897   -3.7838 C   0  0  0  0  0  0  0  0  0  0  0  0
    3.3279    0.3805   -5.0208 C   0  0  0  0  0  0  0  0  0  0  0  0
    3.5796   -0.9968   -4.7561 C   0  0  0  0  0  0  0  0  0  0  0  0
    4.0951    4.6826    1.1621 C   0  0  0  0  0  0  0  0  0  0  0  0
    4.6219    3.7552    2.1412 C   0  0  0  0  0  0  0  0  0  0  0  0
    5.2464    2.5785    1.7654 C   0  0  0  0  0  0  0  0  0  0  0  0
    4.1908    4.4369   -0.1967 C   0  0  0  0  0  0  0  0  0  0  0  0
    5.4753   -0.9151    3.0385 C   0  0  0  0  0  0  0  0  0  0  0  0
    5.3624   -2.2521    2.4944 C   0  0  0  0  0  0  0  0  0  0  0  0
    5.6837    0.1853    2.2252 C   0  0  0  0  0  0  0  0  0  0  0  0
    5.1932    1.4682    2.7029 C   0  0  0  0  0  0  0  0  0  0  0  0
    3.8988   -4.8007   -1.3405 C   0  0  0  0  0  0  0  0  0  0  0  0
    3.3023   -4.6995   -2.6558 C   0  0  0  0  0  0  0  0  0  0  0  0
    3.5120   -3.5971   -3.4661 C   0  0  0  0  0  0  0  0  0  0  0  0
    4.7074   -3.7999   -0.8302 C   0  0  0  0  0  0  0  0  0  0  0  0
    2.4718   -3.2716   -4.4287 C   0  0  0  0  0  0  0  0  0  0  0  0
    4.7598   -3.6597    0.6161 C   0  0  0  0  0  0  0  0  0  0  0  0
    5.4573   -2.4939    1.1349 C   0  0  0  0  0  0  0  0  0  0  0  0
    1.2891   -0.2052   -6.1918 C   0  0  0  0  0  0  0  0  0  0  0  0
    1.5448   -1.6046   -5.9229 C   0  0  0  0  0  0  0  0  0  0  0  0
    2.6114   -2.0112   -5.1402 C   0  0  0  0  0  0  0  0  0  0  0  0
    2.0990    0.7932   -5.6790 C   0  0  0  0  0  0  0  0  0  0  0  0
    1.4911    2.0959   -5.4599 C   0  0  0  0  0  0  0  0  0  0  0  0
    2.1044    5.0199   -3.2272 C   0  0  0  0  0  0  0  0  0  0  0  0
    1.6660    4.2561   -4.3764 C   0  0  0  0  0  0  0  0  0  0  0  0
    2.2921    3.0793   -4.7488 C   0  0  0  0  0  0  0  0  0  0  0  0
    3.1708    4.6098   -2.4459 C   0  0  0  0  0  0  0  0  0  0  0  0
    3.1728    5.0252   -1.0524 C   0  0  0  0  0  0  0  0  0  0  0  0
    4.0116    0.3345    4.5918 C   0  0  0  0  0  0  0  0  0  0  0  0
    4.6409   -0.8407    4.2195 C   0  0  0  0  0  0  0  0  0  0  0  0
    4.3719    1.5414    3.8652 C   0  0  0  0  0  0  0  0  0  0  0  0
    3.5743    2.7276    4.1319 C   0  0  0  0  0  0  0  0  0  0  0  0
    3.7875    3.8296    3.3221 C   0  0  0  0  0  0  0  0  0  0  0  0
    4.0123   -2.1317    4.4052 C   0  0  0  0  0  0  0  0  0  0  0  0
    4.4581   -3.0040    3.3391 C   0  0  0  0  0  0  0  0  0  0  0  0
    2.9353    5.3303    1.7379 C   0  0  0  0  0  0  0  0  0  0  0  0
    2.7452    4.8032    3.0728 C   0  0  0  0  0  0  0  0  0  0  0  0
    2.8956   -5.3065    0.8625 C   0  0  0  0  0  0  0  0  0  0  0  0
    2.9948   -5.5528   -0.4959 C   0  0  0  0  0  0  0  0  0  0  0  0
    3.8699   -4.3997    1.4475 C   0  0  0  0  0  0  0  0  0  0  0  0
    3.6453   -4.0007    2.8276 C   0  0  0  0  0  0  0  0  0  0  0  0
    0.0608   -3.3926   -5.0767 C   0  0  0  0  0  0  0  0  0  0  0  0
    0.2720   -2.2940   -5.8915 C   0  0  0  0  0  0  0  0  0  0  0  0
    1.2191   -3.9500   -4.3974 C   0  0  0  0  0  0  0  0  0  0  0  0
    0.9614   -4.9785   -3.4025 C   0  0  0  0  0  0  0  0  0  0  0  0
    2.0297   -5.3890   -2.6242 C   0  0  0  0  0  0  0  0  0  0  0  0
    1.8396   -5.9164   -1.2893 C   0  0  0  0  0  0  0  0  0  0  0  0
   -0.5752    3.4312   -5.0183 C   0  0  0  0  0  0  0  0  0  0  0  0
    0.2352    4.4320   -4.5110 C   0  0  0  0  0  0  0  0  0  0  0  0
    0.0829    2.2687   -5.5922 C   0  0  0  0  0  0  0  0  0  0  0  0
   -0.7683    1.1451   -5.9485 C   0  0  0  0  0  0  0  0  0  0  0  0
   -0.1417   -0.0296   -6.3265 C   0  0  0  0  0  0  0  0  0  0  0  0
   -0.7703   -1.3206   -6.1410 C   0  0  0  0  0  0  0  0  0  0  0  0
    1.8665    5.7349    0.9572 C   0  0  0  0  0  0  0  0  0  0  0  0
    2.0312    5.6627   -0.4857 C   0  0  0  0  0  0  0  0  0  0  0  0
    0.8465    5.9078   -1.2921 C   0  0  0  0  0  0  0  0  0  0  0  0
    0.9446    5.6678   -2.6517 C   0  0  0  0  0  0  0  0  0  0  0  0
   -0.2106    5.3044   -3.4451 C   0  0  0  0  0  0  0  0  0  0  0  0
    1.3020    3.6407    4.6344 C   0  0  0  0  0  0  0  0  0  0  0  0
    2.3279    2.6827    4.8797 C   0  0  0  0  0  0  0  0  0  0  0  0
    1.4855    4.6784    3.6324 C   0  0  0  0  0  0  0  0  0  0  0  0
   -0.2722    2.2939    5.8914 C   0  0  0  0  0  0  0  0  0  0  0  0
    2.0282    1.4419    5.5763 C   0  0  0  0  0  0  0  0  0  0  0  0
   -0.0606    3.3927    5.0767 C   0  0  0  0  0  0  0  0  0  0  0  0
   -1.2194    3.9500    4.3975 C   0  0  0  0  0  0  0  0  0  0  0  0
   -2.4721    3.2716    4.4287 C   0  0  0  0  0  0  0  0  0  0  0  0
   -1.8395    5.9159    1.2891 C   0  0  0  0  0  0  0  0  0  0  0  0
   -2.0297    5.3887    2.6241 C   0  0  0  0  0  0  0  0  0  0  0  0
   -0.9612    4.9786    3.4024 C   0  0  0  0  0  0  0  0  0  0  0  0
    0.3739    5.2750    2.9091 C   0  0  0  0  0  0  0  0  0  0  0  0
    0.5611    5.7939    1.5952 C   0  0  0  0  0  0  0  0  0  0  0  0
    0.5754   -3.4312    5.0182 C   0  0  0  0  0  0  0  0  0  0  0  0
   -0.2354   -4.4318    4.5109 C   0  0  0  0  0  0  0  0  0  0  0  0
    1.4688   -5.1793    2.8818 C   0  0  0  0  0  0  0  0  0  0  0  0
    2.3997   -4.2685    3.5285 C   0  0  0  0  0  0  0  0  0  0  0  0
    1.9608   -3.4100    4.5777 C   0  0  0  0  0  0  0  0  0  0  0  0
    2.7519   -2.2526    4.9641 C   0  0  0  0  0  0  0  0  0  0  0  0
   -0.0831   -2.2687    5.5923 C   0  0  0  0  0  0  0  0  0  0  0  0
   -1.4913   -2.0959    5.4600 C   0  0  0  0  0  0  0  0  0  0  0  0
    0.7702    1.3205    6.1406 C   0  0  0  0  0  0  0  0  0  0  0  0
    0.1416    0.0296    6.3265 C   0  0  0  0  0  0  0  0  0  0  0  0
    0.7685   -1.1451    5.9485 C   0  0  0  0  0  0  0  0  0  0  0  0
    2.1599   -1.0540    5.5364 C   0  0  0  0  0  0  0  0  0  0  0  0
    2.7786    0.2166    5.3536 C   0  0  0  0  0  0  0  0  0  0  0  0
   -1.8663   -5.7348   -0.9572 C   0  0  0  0  0  0  0  0  0  0  0  0
   -2.9352   -5.3300   -1.7377 C   0  0  0  0  0  0  0  0  0  0  0  0
   -1.4853   -4.6783   -3.6324 C   0  0  0  0  0  0  0  0  0  0  0  0
   -0.3740   -5.2750   -2.9091 C   0  0  0  0  0  0  0  0  0  0  0  0
   -0.5612   -5.7938   -1.5952 C   0  0  0  0  0  0  0  0  0  0  0  0
    0.5804   -6.0352   -0.7274 C   0  0  0  0  0  0  0  0  0  0  0  0
   -2.0315   -5.6626    0.4858 C   0  0  0  0  0  0  0  0  0  0  0  0
    0.2105   -5.3041    3.4448 C   0  0  0  0  0  0  0  0  0  0  0  0
   -0.9448   -5.6676    2.6515 C   0  0  0  0  0  0  0  0  0  0  0  0
   -0.8464   -5.9078    1.2920 C   0  0  0  0  0  0  0  0  0  0  0  0
    0.4899   -5.9721    0.7226 C   0  0  0  0  0  0  0  0  0  0  0  0
    1.6270   -5.6143    1.5034 C   0  0  0  0  0  0  0  0  0  0  0  0
   -4.0114   -0.3345   -4.5918 C   0  0  0  0  0  0  0  0  0  0  0  0
   -4.6407    0.8406   -4.2192 C   0  0  0  0  0  0  0  0  0  0  0  0
   -4.0121    2.1315   -4.4049 C   0  0  0  0  0  0  0  0  0  0  0  0
   -2.7517    2.2525   -4.9641 C   0  0  0  0  0  0  0  0  0  0  0  0
   -2.1599    1.0540   -5.5364 C   0  0  0  0  0  0  0  0  0  0  0  0
   -2.7786   -0.2166   -5.3536 C   0  0  0  0  0  0  0  0  0  0  0  0
   -2.0281   -1.4420   -5.5765 C   0  0  0  0  0  0  0  0  0  0  0  0
   -4.3720   -1.5414   -3.8651 C   0  0  0  0  0  0  0  0  0  0  0  0
   -5.1932   -1.4682   -2.7029 C   0  0  0  0  0  0  0  0  0  0  0  0
   -2.7450   -4.8027   -3.0727 C   0  0  0  0  0  0  0  0  0  0  0  0
   -3.7874   -3.8294   -3.3220 C   0  0  0  0  0  0  0  0  0  0  0  0
   -3.5742   -2.7275   -4.1320 C   0  0  0  0  0  0  0  0  0  0  0  0
   -2.3281   -2.6826   -4.8798 C   0  0  0  0  0  0  0  0  0  0  0  0
   -1.3021   -3.6406   -4.6344 C   0  0  0  0  0  0  0  0  0  0  0  0
   -2.8954    5.3066   -0.8626 C   0  0  0  0  0  0  0  0  0  0  0  0
   -2.9949    5.5524    0.4959 C   0  0  0  0  0  0  0  0  0  0  0  0
   -0.5802    6.0351    0.7272 C   0  0  0  0  0  0  0  0  0  0  0  0
   -0.4901    5.9721   -0.7227 C   0  0  0  0  0  0  0  0  0  0  0  0
   -1.6271    5.6143   -1.5035 C   0  0  0  0  0  0  0  0  0  0  0  0
   -1.4688    5.1795   -2.8820 C   0  0  0  0  0  0  0  0  0  0  0  0
   -4.4580    3.0038   -3.3389 C   0  0  0  0  0  0  0  0  0  0  0  0
   -3.6452    4.0006   -2.8276 C   0  0  0  0  0  0  0  0  0  0  0  0
   -2.3997    4.2685   -3.5284 C   0  0  0  0  0  0  0  0  0  0  0  0
   -1.9609    3.4100   -4.5777 C   0  0  0  0  0  0  0  0  0  0  0  0
   -3.8700    4.3996   -1.4475 C   0  0  0  0  0  0  0  0  0  0  0  0
   -4.7599    3.6596   -0.6161 C   0  0  0  0  0  0  0  0  0  0  0  0
   -5.4752    0.9151   -3.0384 C   0  0  0  0  0  0  0  0  0  0  0  0
   -5.3622    2.2520   -2.4943 C   0  0  0  0  0  0  0  0  0  0  0  0
   -5.6836   -0.1854   -2.2253 C   0  0  0  0  0  0  0  0  0  0  0  0
   -5.9787    0.0689   -0.8242 C   0  0  0  0  0  0  0  0  0  0  0  0
   -6.0086   -1.0868    0.0576 C   0  0  0  0  0  0  0  0  0  0  0  0
   -6.1095   -0.8442    1.4165 C   0  0  0  0  0  0  0  0  0  0  0  0
   -5.4573    2.4940   -1.1349 C   0  0  0  0  0  0  0  0  0  0  0  0
   -5.8675    1.3847   -0.2887 C   0  0  0  0  0  0  0  0  0  0  0  0
   -5.7822    1.5924    1.1478 C   0  0  0  0  0  0  0  0  0  0  0  0
   -5.9966    0.4927    1.9605 C   0  0  0  0  0  0  0  0  0  0  0  0
   -3.8991    4.8007    1.3405 C   0  0  0  0  0  0  0  0  0  0  0  0
   -3.3026    4.6995    2.6559 C   0  0  0  0  0  0  0  0  0  0  0  0
   -4.7075    3.8000    0.8301 C   0  0  0  0  0  0  0  0  0  0  0  0
   -5.0949    2.7306    1.7362 C   0  0  0  0  0  0  0  0  0  0  0  0
   -3.5120    3.5972    3.4662 C   0  0  0  0  0  0  0  0  0  0  0  0
   -4.5078    2.6310    3.0307 C   0  0  0  0  0  0  0  0  0  0  0  0
   -4.5868    1.3897    3.7837 C   0  0  0  0  0  0  0  0  0  0  0  0
   -5.4001    0.3916    3.2758 C   0  0  0  0  0  0  0  0  0  0  0  0
   -1.5450    1.6046    5.9232 C   0  0  0  0  0  0  0  0  0  0  0  0
   -1.2893    0.2052    6.1921 C   0  0  0  0  0  0  0  0  0  0  0  0
   -2.6114    2.0114    5.1404 C   0  0  0  0  0  0  0  0  0  0  0  0
   -3.5797    0.9968    4.7560 C   0  0  0  0  0  0  0  0  0  0  0  0
   -2.0989   -0.7933    5.6792 C   0  0  0  0  0  0  0  0  0  0  0  0
   -3.3280   -0.3805    5.0206 C   0  0  0  0  0  0  0  0  0  0  0  0
   -4.0744   -1.4148    4.3225 C   0  0  0  0  0  0  0  0  0  0  0  0
   -5.1444   -1.0078    3.5446 C   0  0  0  0  0  0  0  0  0  0  0  0
   -1.6662   -4.2563    4.3765 C   0  0  0  0  0  0  0  0  0  0  0  0
   -2.1046   -5.0200    3.2274 C   0  0  0  0  0  0  0  0  0  0  0  0
   -2.2921   -3.0794    4.7489 C   0  0  0  0  0  0  0  0  0  0  0  0
   -3.5271   -2.7364    4.0619 C   0  0  0  0  0  0  0  0  0  0  0  0
   -4.0952   -4.6825   -1.1620 C   0  0  0  0  0  0  0  0  0  0  0  0
   -4.6219   -3.7551   -2.1411 C   0  0  0  0  0  0  0  0  0  0  0  0
   -5.2464   -2.5784   -1.7655 C   0  0  0  0  0  0  0  0  0  0  0  0
   -5.5281   -2.3971   -0.3504 C   0  0  0  0  0  0  0  0  0  0  0  0
   -4.1908   -4.4371    0.1967 C   0  0  0  0  0  0  0  0  0  0  0  0
   -5.0097   -3.3098    0.6132 C   0  0  0  0  0  0  0  0  0  0  0  0
   -4.9531   -2.9453    2.0196 C   0  0  0  0  0  0  0  0  0  0  0  0
   -5.5829   -1.7715    2.3955 C   0  0  0  0  0  0  0  0  0  0  0  0
   -3.1730   -5.0253    1.0525 C   0  0  0  0  0  0  0  0  0  0  0  0
   -3.1708   -4.6101    2.4459 C   0  0  0  0  0  0  0  0  0  0  0  0
   -3.9586   -3.4880    2.9310 C   0  0  0  0  0  0  0  0  0  0  0  0
M  END
$$$$
