26
c26
C         -0.76127        2.12767        0.00000
C         -1.46198       -1.72311        0.00000
C          2.22325       -0.40455        0.00000
C          0.76127        2.12767        0.00000
C         -2.22325       -0.40455        0.00000
C          1.46198       -1.72311        0.00000
C         -0.73287       -1.74789        1.21852
C          1.88015        0.23926        1.21852
C         -1.14728        1.50863        1.21852
C         -0.73287       -1.74789       -1.21852
C          1.88015        0.23926       -1.21852
C         -1.14728        1.50863       -1.21852
C          0.73287       -1.74789       -1.21852
C          1.14728        1.50863       -1.21852
C         -1.88015        0.23926       -1.21852
C          0.73287       -1.74789        1.21852
C          1.14728        1.50863        1.21852
C         -1.88015        0.23926        1.21852
C          0.00000        1.34027        2.11254
C         -1.16071       -0.67013        2.11254
C          1.16071       -0.67013        2.11254
C          0.00000        1.34027       -2.11254
C         -1.16071       -0.67013       -2.11254
C          1.16071       -0.67013       -2.11254
C          0.00000        0.00000        2.61082
C          0.00000        0.00000       -2.61082
