60
c60.g03
C          0.00000        1.23630        3.32754
C         -1.17579        0.38204        3.32754
C         -0.72668       -1.00019        3.32754
C          0.72668       -1.00019        3.32754
C          1.17579        0.38204        3.32754
C          2.30474        0.74886        2.59390
C          3.03142       -0.25133        1.82983
C          2.60020       -1.57849        1.82983
C          1.42441       -1.96053        2.59390
C          0.69773       -2.96072        1.82983
C         -0.69773       -2.96072        1.82983
C         -1.42441       -1.96053        2.59390
C         -2.60020       -1.57849        1.82983
C         -3.03142       -0.25133        1.82983
C         -2.30474        0.74886        2.59390
C         -2.30474        1.98516        1.82983
C         -3.03142        1.74904        0.59352
C         -3.48053        0.36682        0.59352
C         -3.48053       -0.36682       -0.59352
C         -3.03142       -1.74904       -0.59352
C         -2.60020       -2.34257        0.59352
C         -1.42441       -3.19683        0.59352
C         -0.72668       -3.42354       -0.59352
C          0.72668       -3.42354       -0.59352
C          1.42441       -3.19683        0.59352
C          2.60020       -2.34257        0.59352
C          3.03142       -1.74904       -0.59352
C          3.48053       -0.36682       -0.59352
C          3.48053        0.36682        0.59352
C          3.03142        1.74904        0.59352
C          2.60020        2.34257       -0.59352
C          2.60020        1.57849       -1.82983
C          3.03142        0.25133       -1.82983
C          2.30474       -0.74886       -2.59390
C          2.30474       -1.98516       -1.82983
C          1.17579       -2.80539       -1.82983
C          0.00000       -2.42335       -2.59390
C         -1.17579       -2.80539       -1.82983
C         -2.30474       -1.98516       -1.82983
C         -2.30474       -0.74886       -2.59390
C         -3.03142        0.25133       -1.82983
C         -2.60020        1.57849       -1.82983
C         -2.60020        2.34257       -0.59352
C         -1.42441        3.19683       -0.59352
C         -0.69773        2.96072       -1.82983
C         -1.42441        1.96053       -2.59390
C         -0.72668        1.00019       -3.32754
C         -1.17579       -0.38204       -3.32754
C          0.00000       -1.23630       -3.32754
C          1.17579       -0.38204       -3.32754
C          0.72668        1.00019       -3.32754
C          1.42441        1.96053       -2.59390
C          0.69773        2.96072       -1.82983
C          1.42441        3.19683       -0.59352
C          0.72668        3.42354        0.59352
C         -0.72668        3.42354        0.59352
C         -1.17579        2.80539        1.82983
C          0.00000        2.42335        2.59390
C          1.17579        2.80539        1.82983
C          2.30474        1.98516        1.82983
