70
c70
C          3.22192        1.98668       -1.37200
C          3.97058        1.01666       -0.70192
C          3.97030        0.98174        0.74971
C          3.97063       -0.40953        1.16542
C          2.44269        2.95165       -0.62370
C          3.22207        1.91885        1.46557
C          2.44277        1.62859       -2.53940
C          3.97056       -0.35337       -1.18349
C          3.97084       -1.23481       -0.02957
C          3.22215       -0.69096       -2.31323
C          3.22248       -0.80064        2.27790
C          2.44268        2.91832        0.76416
C          2.44246        1.50514        2.61386
C          3.22242       -2.41355       -0.05775
C          2.44271        0.17508        3.01141
C          2.44284       -2.02080        2.23936
C          1.20622        3.20044       -1.33910
C          2.44290        0.31880       -2.99989
C          1.20627        2.38588       -2.51891
C          1.20613        3.13242        1.49038
C          1.20606        2.26234        2.62968
C          1.20632       -0.44951        3.43971
C          1.20629       -1.80179        2.96390
C          2.44278       -2.80962        1.09702
C         -0.00016        3.50359       -0.65191
C         -0.00013        3.46864        0.81857
C         -0.00006        1.70286        3.13135
C         -0.00004        0.29325        3.55211
C          0.00009       -2.45149        2.58658
C          1.20653       -3.41025        0.63536
C         -1.20645        3.20037       -1.33910
C         -0.00006        1.85065       -3.04594
C         -1.20637        3.13233        1.49037
C         -1.20629        2.26225        2.62970
C         -1.20628       -0.44958        3.43970
C         -1.20620       -1.80188        2.96388
C          0.00011       -3.28770        1.37641
C         -2.44297        2.95145       -0.62372
C         -1.20648        2.38581       -2.51893
C         -2.44290        2.91818        0.76416
C         -2.44259        1.50500        2.61390
C         -2.44276        0.17491        3.01138
C         -2.44265       -2.02095        2.23934
C         -1.20625       -3.41037        0.63541
C          2.44280       -1.91169       -2.33327
C          2.44319       -2.75449       -1.23016
C          1.20623       -0.28446       -3.45660
C          1.20648       -3.37609       -0.79776
C         -0.00004        0.46275       -3.53295
C         -3.22209        1.98651       -1.37201
C         -2.44285        1.62847       -2.53946
C         -3.22223        1.91862        1.46553
C         -3.22242       -0.80081        2.27789
C         -2.44262       -2.80979        1.09699
C         -1.20620       -3.37614       -0.79777
C          1.20628       -1.65827       -3.04690
C          0.00015       -3.21797       -1.53209
C         -1.20616       -0.28453       -3.45660
C         -3.97066        1.01637       -0.70195
C         -2.44293        0.31862       -2.99988
C         -3.97041        0.98155        0.74967
C         -3.97062       -0.40985        1.16539
C         -3.22221       -2.41376       -0.05774
C         -2.44280       -2.75455       -1.23012
C          0.00010       -2.32553       -2.70138
C         -1.20618       -1.65839       -3.04689
C         -3.97054       -0.35362       -1.18351
C         -3.22206       -0.69113       -2.31323
C         -3.97070       -1.23505       -0.02958
C         -2.44266       -1.91187       -2.33333
