76
c76
C          3.19213        1.26363        2.35928
C          3.97906        1.45075        1.15442
C          4.38233        0.14365        0.68487
C          4.38233       -0.14365       -0.68487
C          3.85648       -0.83998        1.61529
C          3.49582       -2.09577        1.16468
C          3.03275       -0.14315        2.59668
C          1.80216       -0.68305        3.04870
C          1.49256       -2.05558        2.64936
C          0.69584        0.23536        3.36260
C          2.31652       -2.73369        1.70423
C          0.15572       -2.49199        2.72725
C         -0.39168       -3.43034        1.79970
C         -0.91444       -1.61489        3.17819
C          0.91444        1.61489        3.17819
C         -0.69584       -0.23536        3.36260
C         -1.80216        0.68305        3.04870
C         -2.14171       -2.12580        2.64593
C         -1.49256        2.05558        2.64936
C         -3.03275        0.14315        2.59668
C         -3.85648        0.83998        1.61529
C         -3.19213       -1.26363        2.35928
C         -1.81683       -3.21251        1.74396
C          0.34656       -3.82384        0.64772
C         -0.34656       -3.82384       -0.64772
C          1.73605       -3.55104        0.68031
C         -3.97906       -1.45075        1.15442
C          2.14171        2.12580        2.64593
C          3.59514        2.43179        0.23961
C          3.85648        0.83998       -1.61529
C          3.97906       -1.45075       -1.15442
C          3.59514       -2.43179       -0.23961
C          2.49443       -3.32369       -0.53914
C          1.81683       -3.21251       -1.74396
C          0.39168       -3.43034       -1.79970
C          2.14171       -2.12580       -2.64593
C          3.19213       -1.26363       -2.35928
C          3.03275        0.14315       -2.59668
C          0.91444       -1.61489       -3.17819
C         -0.15572       -2.49199       -2.72725
C          0.69584       -0.23536       -3.36260
C         -0.15572        2.49199        2.72725
C         -3.49582        2.09577        1.16468
C         -4.38233       -0.14365        0.68487
C         -4.38233        0.14365       -0.68487
C         -3.97906        1.45075       -1.15442
C         -3.85648       -0.83998       -1.61529
C         -2.31652        2.73369        1.70423
C          0.39168        3.43034        1.79970
C         -3.49582       -2.09577       -1.16468
C         -3.03275       -0.14315       -2.59668
C         -3.19213        1.26363       -2.35928
C         -1.80216       -0.68305       -3.04870
C         -1.49256       -2.05558       -2.64936
C         -0.69584        0.23536       -3.36260
C         -2.31652       -2.73369       -1.70423
C         -1.73605       -3.55104       -0.68031
C         -2.49443       -3.32369        0.53914
C         -3.59514       -2.43179        0.23961
C          2.49443        3.32369        0.53914
C          3.49582        2.09577       -1.16468
C          1.81683        3.21251        1.74396
C          1.73605        3.55104       -0.68031
C          2.31652        2.73369       -1.70423
C          1.49256        2.05558       -2.64936
C          1.80216        0.68305       -3.04870
C          0.15572        2.49199       -2.72725
C          0.34656        3.82384       -0.64772
C         -0.39168        3.43034       -1.79970
C         -0.91444        1.61489       -3.17819
C         -2.14171        2.12580       -2.64593
C         -1.81683        3.21251       -1.74396
C         -3.59514        2.43179       -0.23961
C         -1.73605        3.55104        0.68031
C         -2.49443        3.32369       -0.53914
C         -0.34656        3.82384        0.64772
