78
c78
C          2.35069        1.18498       -2.99045
C          1.22318        0.73360       -3.71298
C          2.55976        3.22401        0.13137
C          3.02154        2.38103       -0.90731
C          2.31720        2.38036       -2.19877
C          1.17057        3.19814       -2.33844
C         -0.70036        4.21479        1.17833
C          0.70036        4.21479        1.17833
C          1.41944        4.10833       -0.06591
C          0.72376        4.06210       -1.26594
C         -3.02154        2.38103       -0.90731
C         -2.55976        3.22401        0.13137
C         -1.41944        4.10833       -0.06591
C         -0.72376        4.06210       -1.26594
C         -2.31720        2.38036       -2.19877
C         -1.17057        3.19814       -2.33844
C          0.00000        2.71969       -3.03003
C          0.00000        1.46187       -3.69425
C         -1.22318        0.73360       -3.71298
C         -2.35069        1.18498       -2.99045
C         -0.72645        2.71629        3.12563
C         -1.41443        3.41647        2.15069
C          1.41443        3.41647        2.15069
C          0.72645        2.71629        3.12563
C         -2.53898        2.78107        1.49880
C         -2.95982        1.46782        1.86864
C         -2.25286        0.73625        2.92565
C         -1.17566        1.40790        3.55007
C         -3.67148        1.18331       -0.48764
C         -3.61526        0.73079        0.85505
C          2.53898        2.78107        1.49880
C          2.95982        1.46782        1.86864
C          3.61526        0.73079        0.85505
C          3.67148        1.18331       -0.48764
C          1.17566        1.40790        3.55007
C          2.25286        0.73625        2.92565
C         -1.17566       -1.40790        3.55007
C         -2.25286       -0.73625        2.92565
C          1.41443       -3.41647        2.15069
C          0.72645       -2.71629        3.12563
C         -0.72645       -2.71629        3.12563
C         -1.41443       -3.41647        2.15069
C          0.72376       -4.06210       -1.26594
C          1.41944       -4.10833       -0.06591
C          0.70036       -4.21479        1.17833
C         -0.70036       -4.21479        1.17833
C         -2.31720       -2.38036       -2.19877
C         -1.17057       -3.19814       -2.33844
C         -0.72376       -4.06210       -1.26594
C         -1.41944       -4.10833       -0.06591
C         -3.02154       -2.38103       -0.90731
C         -2.55976       -3.22401        0.13137
C         -2.53898       -2.78107        1.49880
C         -2.95982       -1.46782        1.86864
C         -3.61526       -0.73079        0.85505
C         -3.67148       -1.18331       -0.48764
C          2.31720       -2.38036       -2.19877
C          1.17057       -3.19814       -2.33844
C          2.55976       -3.22401        0.13137
C          3.02154       -2.38103       -0.90731
C          0.00000       -2.71969       -3.03003
C          0.00000       -1.46187       -3.69425
C          1.22318       -0.73360       -3.71298
C          2.35069       -1.18498       -2.99045
C         -2.35069       -1.18498       -2.99045
C         -1.22318       -0.73360       -3.71298
C          2.53898       -2.78107        1.49880
C          2.95982       -1.46782        1.86864
C          2.25286       -0.73625        2.92565
C          1.17566       -1.40790        3.55007
C          3.67148       -1.18331       -0.48764
C          3.61526       -0.73079        0.85505
C          3.69029        0.00000       -1.32382
C          3.05772        0.00000       -2.54083
C         -3.05772        0.00000       -2.54083
C         -3.69029        0.00000       -1.32382
C          0.00000       -0.68634        3.95535
C          0.00000        0.68634        3.95535
