molecules/C80.sdf
 OpenBabel04091613483D

 80  0  0  0  0  0  0  0  0  0999 V2000
   -3.3782   -0.3821    2.3520 C   0  0  0  0  0  0  0  0  0  0  0  0
   -2.5425   -1.4261    2.8947 C   0  0  0  0  0  0  0  0  0  0  0  0
   -2.5594   -2.5282    1.9846 C   0  0  0  0  0  0  0  0  0  0  0  0
   -3.4059   -2.1773    0.8694 C   0  0  0  0  0  0  0  0  0  0  0  0
   -3.9040   -0.8470    1.0963 C   0  0  0  0  0  0  0  0  0  0  0  0
   -1.9169    1.2858    3.3909 C   0  0  0  0  0  0  0  0  0  0  0  0
   -1.1021    0.2482    3.9329 C   0  0  0  0  0  0  0  0  0  0  0  0
   -1.3702   -1.1196    3.6509 C   0  0  0  0  0  0  0  0  0  0  0  0
   -3.0519    0.9841    2.5462 C   0  0  0  0  0  0  0  0  0  0  0  0
   -0.2733   -3.1061    2.6559 C   0  0  0  0  0  0  0  0  0  0  0  0
   -1.4047   -3.3495    1.8090 C   0  0  0  0  0  0  0  0  0  0  0  0
   -0.2568   -2.0176    3.5555 C   0  0  0  0  0  0  0  0  0  0  0  0
   -1.9909   -3.5379   -0.5942 C   0  0  0  0  0  0  0  0  0  0  0  0
   -3.1084   -2.6324   -0.4404 C   0  0  0  0  0  0  0  0  0  0  0  0
   -1.1654   -3.8897    0.5156 C   0  0  0  0  0  0  0  0  0  0  0  0
   -3.9068   -0.4424   -1.3066 C   0  0  0  0  0  0  0  0  0  0  0  0
   -4.1324    0.0518    0.0124 C   0  0  0  0  0  0  0  0  0  0  0  0
   -3.4081   -1.7733   -1.5283 C   0  0  0  0  0  0  0  0  0  0  0  0
   -3.8765    1.4363    0.2454 C   0  0  0  0  0  0  0  0  0  0  0  0
   -3.3512    1.8960    1.5026 C   0  0  0  0  0  0  0  0  0  0  0  0
   -2.5482   -0.4002   -3.1974 C   0  0  0  0  0  0  0  0  0  0  0  0
   -3.3830    0.4084   -2.3417 C   0  0  0  0  0  0  0  0  0  0  0  0
   -2.5640   -1.7395   -2.6985 C   0  0  0  0  0  0  0  0  0  0  0  0
   -2.4916    3.2612   -0.1730 C   0  0  0  0  0  0  0  0  0  0  0  0
   -2.4903    3.0239    1.2358 C   0  0  0  0  0  0  0  0  0  0  0  0
   -3.3533    2.2826   -0.7930 C   0  0  0  0  0  0  0  0  0  0  0  0
    1.9226   -2.3249    2.7795 C   0  0  0  0  0  0  0  0  0  0  0  0
    1.0811   -3.2998    2.1640 C   0  0  0  0  0  0  0  0  0  0  0  0
    1.1091   -1.5222    3.6326 C   0  0  0  0  0  0  0  0  0  0  0  0
    0.1880   -3.8571   -1.3658 C   0  0  0  0  0  0  0  0  0  0  0  0
   -1.1674   -3.5063   -1.7590 C   0  0  0  0  0  0  0  0  0  0  0  0
    0.1893   -4.0921    0.0271 C   0  0  0  0  0  0  0  0  0  0  0  0
    2.4916   -3.2611    0.1732 C   0  0  0  0  0  0  0  0  0  0  0  0
    2.4903   -3.0238   -1.2359 C   0  0  0  0  0  0  0  0  0  0  0  0
    1.3190   -3.2633   -2.0168 C   0  0  0  0  0  0  0  0  0  0  0  0
    1.3213   -3.7432    0.8345 C   0  0  0  0  0  0  0  0  0  0  0  0
   -0.2789   -2.0650   -3.5260 C   0  0  0  0  0  0  0  0  0  0  0  0
   -0.2636   -0.7417   -4.0191 C   0  0  0  0  0  0  0  0  0  0  0  0
   -1.3770    0.1375   -3.8131 C   0  0  0  0  0  0  0  0  0  0  0  0
   -1.4088   -2.5722   -2.8035 C   0  0  0  0  0  0  0  0  0  0  0  0
   -1.9225    2.3249   -2.7793 C   0  0  0  0  0  0  0  0  0  0  0  0
   -1.0811    3.2997   -2.1639 C   0  0  0  0  0  0  0  0  0  0  0  0
   -1.3213    3.7433   -0.8345 C   0  0  0  0  0  0  0  0  0  0  0  0
   -3.0562    1.7629   -2.0782 C   0  0  0  0  0  0  0  0  0  0  0  0
    2.5483    0.4001    3.1974 C   0  0  0  0  0  0  0  0  0  0  0  0
    3.3829   -0.4084    2.3416 C   0  0  0  0  0  0  0  0  0  0  0  0
    3.0562   -1.7629    2.0782 C   0  0  0  0  0  0  0  0  0  0  0  0
    1.3772   -0.1375    3.8132 C   0  0  0  0  0  0  0  0  0  0  0  0
   -0.1881    3.8573    1.3659 C   0  0  0  0  0  0  0  0  0  0  0  0
   -0.1893    4.0922   -0.0270 C   0  0  0  0  0  0  0  0  0  0  0  0
    0.2791    2.0650    3.5262 C   0  0  0  0  0  0  0  0  0  0  0  0
    0.2638    0.7419    4.0193 C   0  0  0  0  0  0  0  0  0  0  0  0
   -1.0764    2.4085    3.1269 C   0  0  0  0  0  0  0  0  0  0  0  0
    1.9171   -1.2858   -3.3912 C   0  0  0  0  0  0  0  0  0  0  0  0
    1.1020   -0.2482   -3.9329 C   0  0  0  0  0  0  0  0  0  0  0  0
    1.0763   -2.4085   -3.1269 C   0  0  0  0  0  0  0  0  0  0  0  0
    1.3700    1.1197   -3.6510 C   0  0  0  0  0  0  0  0  0  0  0  0
    2.5424    1.4262   -2.8948 C   0  0  0  0  0  0  0  0  0  0  0  0
    3.8764   -1.4364   -0.2455 C   0  0  0  0  0  0  0  0  0  0  0  0
    3.3512   -1.8961   -1.5028 C   0  0  0  0  0  0  0  0  0  0  0  0
    3.3532   -2.2827    0.7930 C   0  0  0  0  0  0  0  0  0  0  0  0
    3.0517   -0.9842   -2.5463 C   0  0  0  0  0  0  0  0  0  0  0  0
    3.3781    0.3820   -2.3521 C   0  0  0  0  0  0  0  0  0  0  0  0
    3.4081    1.7733    1.5281 C   0  0  0  0  0  0  0  0  0  0  0  0
    3.9068    0.4423    1.3065 C   0  0  0  0  0  0  0  0  0  0  0  0
    2.5640    1.7395    2.6984 C   0  0  0  0  0  0  0  0  0  0  0  0
    4.1324   -0.0519   -0.0125 C   0  0  0  0  0  0  0  0  0  0  0  0
    3.9040    0.8470   -1.0964 C   0  0  0  0  0  0  0  0  0  0  0  0
    0.2566    2.0174   -3.5554 C   0  0  0  0  0  0  0  0  0  0  0  0
    0.2732    3.1063   -2.6558 C   0  0  0  0  0  0  0  0  0  0  0  0
   -1.1090    1.5223   -3.6325 C   0  0  0  0  0  0  0  0  0  0  0  0
    1.4045    3.3495   -1.8090 C   0  0  0  0  0  0  0  0  0  0  0  0
    2.5594    2.5282   -1.9847 C   0  0  0  0  0  0  0  0  0  0  0  0
    1.1676    3.5063    1.7591 C   0  0  0  0  0  0  0  0  0  0  0  0
    1.4090    2.5722    2.8035 C   0  0  0  0  0  0  0  0  0  0  0  0
   -1.3190    3.2635    2.0169 C   0  0  0  0  0  0  0  0  0  0  0  0
    1.9909    3.5379    0.5942 C   0  0  0  0  0  0  0  0  0  0  0  0
    1.1654    3.8898   -0.5156 C   0  0  0  0  0  0  0  0  0  0  0  0
    3.1085    2.6323    0.4403 C   0  0  0  0  0  0  0  0  0  0  0  0
    3.4059    2.1773   -0.8694 C   0  0  0  0  0  0  0  0  0  0  0  0
M  END
$$$$
