80
c80.g09
C         -3.37816       -0.38208        2.35197
C         -2.54247       -1.42609        2.89473
C         -2.55940       -2.52820        1.98457
C         -3.40586       -2.17726        0.86936
C         -3.90396       -0.84704        1.09632
C         -1.91689        1.28576        3.39090
C         -1.10211        0.24824        3.93285
C         -1.37024       -1.11963        3.65089
C         -3.05189        0.98412        2.54618
C         -0.27326       -3.10613        2.65595
C         -1.40471       -3.34949        1.80899
C         -0.25680       -2.01758        3.55552
C         -1.99086       -3.53788       -0.59418
C         -3.10836       -2.63239       -0.44041
C         -1.16540       -3.88975        0.51564
C         -3.90684       -0.44240       -1.30659
C         -4.13242        0.05178        0.01242
C         -3.40813       -1.77335       -1.52828
C         -3.87645        1.43630        0.24536
C         -3.35122        1.89603        1.50264
C         -2.54823       -0.40015       -3.19745
C         -3.38299        0.40837       -2.34170
C         -2.56399       -1.73953       -2.69848
C         -2.49159        3.26119       -0.17304
C         -2.49033        3.02391        1.23582
C         -3.35330        2.28261       -0.79303
C          1.92258       -2.32493        2.77950
C          1.08114       -3.29980        2.16402
C          1.10909       -1.52222        3.63263
C          0.18803       -3.85713       -1.36584
C         -1.16740       -3.50628       -1.75904
C          0.18926       -4.09214        0.02711
C          2.49158       -3.26113        0.17322
C          2.49029       -3.02385       -1.23586
C          1.31902       -3.26331       -2.01677
C          1.32133       -3.74322        0.83454
C         -0.27893       -2.06495       -3.52600
C         -0.26363       -0.74169       -4.01915
C         -1.37704        0.13751       -3.81315
C         -1.40878       -2.57223       -2.80347
C         -1.92249        2.32491       -2.77934
C         -1.08110        3.29973       -2.16390
C         -1.32134        3.74330       -0.83445
C         -3.05622        1.76286       -2.07821
C          2.54828        0.40010        3.19739
C          3.38294       -0.40840        2.34163
C          3.05620       -1.76287        2.07821
C          1.37718       -0.13753        3.81323
C         -0.18808        3.85728        1.36589
C         -0.18929        4.09215       -0.02699
C          0.27909        2.06495        3.52624
C          0.26380        0.74186        4.01929
C         -1.07637        2.40851        3.12695
C          1.91708       -1.28585       -3.39119
C          1.10196       -0.24823       -3.93293
C          1.07632       -2.40845       -3.12695
C          1.37005        1.11968       -3.65096
C          2.54239        1.42622       -2.89479
C          3.87640       -1.43635       -0.24545
C          3.35119       -1.89611       -1.50275
C          3.35316       -2.28267        0.79298
C          3.05173       -0.98418       -2.54625
C          3.37813        0.38204       -2.35205
C          3.40812        1.77327        1.52815
C          3.90676        0.44233        1.30647
C          2.56403        1.73947        2.69837
C          4.13238       -0.05192       -0.01247
C          3.90404        0.84699       -1.09643
C          0.25660        2.01742       -3.55538
C          0.27315        3.10631       -2.65583
C         -1.10895        1.52225       -3.63248
C          1.40450        3.34950       -1.80899
C          2.55936        2.52823       -1.98471
C          1.16761        3.50627        1.75905
C          1.40897        2.57225        2.80348
C         -1.31900        3.26345        2.01694
C          1.99092        3.53787        0.59416
C          1.16541        3.88977       -0.51561
C          3.10846        2.63234        0.44034
C          3.40595        2.17728       -0.86940
